LAMMPS (27 Jun 2024)
# Variable definition
variable        Ti          equal   500
variable        Tf          equal   0.001
variable        P           equal   0
variable        dT          equal   99.99
variable        nT          equal   8
variable        Tdamp       equal   1.0
variable        Pdamp       equal   1.0
variable        dt          equal   0.01

# Set up problem
units           metal
dimension       3
# box tilt        large
atom_style      atomic

# Build structure
boundary        p p p
read_data       MoS2WSe2_1D_Stretch_26atoms.dat
Reading data file ...
  triclinic box = (0 0 0) to (85.32567 2.8422954 100) with tilt (-1.641 0 0)
  reading atoms ...
  159 atoms

# Read potential
pair_style      hybrid/overlay sw/mod sw/mod kolmogorov/crespi/z 14.0 kolmogorov/crespi/z 14.0 kolmogorov/crespi/z 14.0 kolmogorov/crespi/z 14.0 lj/cut 10.0

# Intralayer Interaction
pair_coeff * * sw/mod 1 tmd.sw Mo S S NULL NULL NULL
pair_coeff * * sw/mod 2 tmd.sw NULL NULL NULL W Se Se

# Interlayer Interaction
pair_coeff 1 5 kolmogorov/crespi/z 1 WS.KC Mo NULL NULL NULL Se NULL
pair_coeff 3 4 kolmogorov/crespi/z 2 WS.KC NULL NULL S W NULL NULL
pair_coeff 3 5 kolmogorov/crespi/z 3 WS.KC NULL NULL S NULL Se NULL
pair_coeff 1 4 kolmogorov/crespi/z 4 WS.KC Mo NULL NULL W NULL NULL
pair_coeff * * lj/cut 0.0 3.0
neighbor        2.0 bin
neigh_modify    every 1 delay 0 check yes

################### Molecular Dynamics Part #######################
timestep        0.01

thermo_style    custom step temp ke pe etotal press
thermo_modify   lost warn
thermo          1000

# Set the velocity
velocity        all create 500 248454 mom yes rot yes dist gaussian

# Save data
variable        temp    equal temp
variable        ke      equal ke
variable        pe      equal pe
variable        etotal  equal etotal
variable        vol     equal vol
fix             info    all   ave/time    1 100 100  v_temp v_ke v_pe v_etotal v_vol      file info_sa.dat
dump            trj     all   custom      200 sa.lammpstrj id type x y z

# Decrease temperature from 800K to 0K
# linear process
fix             1       all     nvt     temp 500 0.001 1
fix             momentum    all momentum 1 linear 1 1 1
run             170000

CITE-CITE-CITE-CITE-CITE-CITE-CITE-CITE-CITE-CITE-CITE-CITE-CITE

Your simulation uses code contributions which should be cited:

- Type Label Framework: https://doi.org/10.1021/acs.jpcb.3c08419

@Article{Gissinger24,
 author = {Jacob R. Gissinger, Ilia Nikiforov, Yaser Afshar, Brendon Waters, Moon-ki Choi, Daniel S. Karls, Alexander Stukowski, Wonpil Im, Hendrik Heinz, Axel Kohlmeyer, and Ellad B. Tadmor},
 title = {Type Label Framework for Bonded Force Fields in LAMMPS},
 journal = {J. Phys. Chem. B},
 year =    2024,
 volume =  128,
 number =  13,
 pages =   {3282â€“-3297}
}

CITE-CITE-CITE-CITE-CITE-CITE-CITE-CITE-CITE-CITE-CITE-CITE-CITE

Step          Temp          KinEng         PotEng         TotEng         Press
0   500            10.211551     -305.04171     -294.83015     -3893.1923
Averages over the last 86 of 171 rows, steps 85000 to 170000:
Temp KinEng PotEng TotEng Press
125.651 2.56619 -309.696 -307.129 -2398.7
Loop time of 128.803 on 1 procs for 170000 steps with 159 atoms

unfix           1
write_data      data.eq
System init for write_data ...
