LAMMPS (27 Jun 2024)
# Variable definition
# Set initial temperature 1000K, delta T 100K
variable        Ti          equal   800
variable        Tf          equal   0
variable        P           equal   0
variable        dT          equal   99.99
variable        nT          equal   8
variable        Tdamp       equal   1.0
variable        Pdamp       equal   1.0
variable        dt          equal   0.01

# Set up problem
units           metal
# box tilt        large
atom_style      atomic

# Build structure
boundary        p p s
read_data       lammps.dat
Reading data file ...
  triclinic box = (0 0 0) to (37.593658 21.527795 100) with tilt (-27.496151 0 0)
  reading atoms ...
  540 atoms

# Read potential
pair_style      hybrid/overlay sw/mod sw/mod kolmogorov/crespi/z 14.0 kolmogorov/crespi/z 14.0 kolmogorov/crespi/z 14.0 kolmogorov/crespi/z 14.0 lj/cut 10.0

# Intralayer Interaction
pair_coeff * * sw/mod 1 tmd.sw Mo S S NULL NULL NULL
pair_coeff * * sw/mod 2 tmd.sw NULL NULL NULL Mo Se Se

# Interlayer Interaction
pair_coeff 1 5 kolmogorov/crespi/z 1 WS.KC Mo NULL NULL NULL Se NULL
pair_coeff 3 4 kolmogorov/crespi/z 2 WS.KC NULL NULL S Mo NULL NULL
pair_coeff 3 5 kolmogorov/crespi/z 3 WS.KC NULL NULL S NULL Se NULL
pair_coeff 1 4 kolmogorov/crespi/z 4 WS.KC Mo NULL NULL Mo NULL NULL
pair_coeff * * lj/cut 0.0 3.0
neighbor        2.0 bin
neigh_modify    every 1 delay 0 check yes

################### Molecular Dynamics Part #######################
timestep        0.01

thermo_style    custom step temp ke pe etotal press
thermo_modify   lost warn
thermo          1000

# Set the velocity
velocity        all create 800 248454 mom yes rot yes dist gaussian

# Save data
variable        temp    equal temp
variable        ke      equal ke
variable        pe      equal pe
variable        etotal  equal etotal
variable        vol     equal vol
fix             info    all   ave/time    1 100 100  v_temp v_ke v_pe v_etotal v_vol      file info_sa.dat
dump            trj     all   custom      200 sa.lammpstrj id type x y z

# Equilibrium slowly decrease temperature
label           equiloop
variable        istep   loop    0   8   pad
variable        Tm      equal   -0*99.99+800
fix             1       all     nvt     temp 800 800 1
fix             momentum    all momentum 1 linear 1 1 1
run             10000

CITE-CITE-CITE-CITE-CITE-CITE-CITE-CITE-CITE-CITE-CITE-CITE-CITE

Your simulation uses code contributions which should be cited:

- Type Label Framework: https://doi.org/10.1021/acs.jpcb.3c08419

@Article{Gissinger24,
 author = {Jacob R. Gissinger, Ilia Nikiforov, Yaser Afshar, Brendon Waters, Moon-ki Choi, Daniel S. Karls, Alexander Stukowski, Wonpil Im, Hendrik Heinz, Axel Kohlmeyer, and Ellad B. Tadmor},
 title = {Type Label Framework for Bonded Force Fields in LAMMPS},
 journal = {J. Phys. Chem. B},
 year =    2024,
 volume =  128,
 number =  13,
 pages =   {3282â€“-3297}
}

CITE-CITE-CITE-CITE-CITE-CITE-CITE-CITE-CITE-CITE-CITE-CITE-CITE

Step          Temp          KinEng         PotEng         TotEng         Press
0   800            55.736975     -887.45022     -831.71325     -18979.418
Averages over the last 6 of 11 rows, steps 5000 to 10000:
Temp KinEng PotEng TotEng Press
810.213 56.4485 -831.456 -775.007 881.446
Loop time of 24.9602 on 1 procs for 10000 steps with 540 atoms

unfix           1
write_data      data.eq.800
System init for write_data ...
next            istep
jump            SELF    equiloop
variable        istep   loop    0   8   pad
variable        Tm      equal   -1*99.99+800
fix             1       all     nvt     temp 700.01 700.01 1
fix             momentum    all momentum 1 linear 1 1 1
run             10000
Step          Temp          KinEng         PotEng         TotEng         Press
10000   857.09197      59.714642     -831.83898     -772.12434      2530.3081
Averages over the last 6 of 11 rows, steps 15000 to 20000:
Temp KinEng PotEng TotEng Press
701.088 48.8456 -836.676 -787.83 1569.95
Loop time of 24.7815 on 1 procs for 10000 steps with 540 atoms

unfix           1
write_data      data.eq.700.01
System init for write_data ...
next            istep
jump            SELF    equiloop
variable        istep   loop    0   8   pad
variable        Tm      equal   -2*99.99+800
fix             1       all     nvt     temp 600.02 600.02 1
fix             momentum    all momentum 1 linear 1 1 1
run             10000
Step          Temp          KinEng         PotEng         TotEng         Press
20000   752.03374      52.395107     -837.39364     -784.99853      2004.8928
Averages over the last 6 of 11 rows, steps 25000 to 30000:
Temp KinEng PotEng TotEng Press
590.473 41.139 -847.182 -806.043 354.21
Loop time of 24.6813 on 1 procs for 10000 steps with 540 atoms

unfix           1
write_data      data.eq.600.02
System init for write_data ...
next            istep
jump            SELF    equiloop
variable        istep   loop    0   8   pad
variable        Tm      equal   -3*99.99+800
fix             1       all     nvt     temp 500.03 500.03 1
fix             momentum    all momentum 1 linear 1 1 1
run             10000
Step          Temp          KinEng         PotEng         TotEng         Press
30000   567.23516      39.519965     -848.1357      -808.61574     -1293.8822
Averages over the last 6 of 11 rows, steps 35000 to 40000:
Temp KinEng PotEng TotEng Press
497.852 34.6859 -854.641 -819.955 -1704.69
Loop time of 24.7382 on 1 procs for 10000 steps with 540 atoms

unfix           1
write_data      data.eq.500.03
System init for write_data ...
next            istep
jump            SELF    equiloop
variable        istep   loop    0   8   pad
variable        Tm      equal   -4*99.99+800
fix             1       all     nvt     temp 400.04 400.04 1
fix             momentum    all momentum 1 linear 1 1 1
run             10000
Step          Temp          KinEng         PotEng         TotEng         Press
40000   491.82176      34.265821     -853.94056     -819.67474     -1754.8123
Averages over the last 6 of 11 rows, steps 45000 to 50000:
Temp KinEng PotEng TotEng Press
404.141 28.157 -862.452 -834.295 -2815.56
Loop time of 24.5403 on 1 procs for 10000 steps with 540 atoms

unfix           1
write_data      data.eq.400.04
System init for write_data ...
next            istep
jump            SELF    equiloop
variable        istep   loop    0   8   pad
variable        Tm      equal   -5*99.99+800
fix             1       all     nvt     temp 300.05 300.05 1
fix             momentum    all momentum 1 linear 1 1 1
run             10000
Step          Temp          KinEng         PotEng         TotEng         Press
50000   393.99103      27.449835     -862.6823      -835.23246     -5700.5007
Averages over the last 6 of 11 rows, steps 55000 to 60000:
Temp KinEng PotEng TotEng Press
298.977 20.8301 -870.497 -849.667 -5619.36
Loop time of 24.1729 on 1 procs for 10000 steps with 540 atoms

unfix           1
write_data      data.eq.300.05
System init for write_data ...
next            istep
jump            SELF    equiloop
variable        istep   loop    0   8   pad
variable        Tm      equal   -6*99.99+800
fix             1       all     nvt     temp 200.06 200.06 1
fix             momentum    all momentum 1 linear 1 1 1
run             10000
Step          Temp          KinEng         PotEng         TotEng         Press
60000   296.36739      20.648277     -870.3815      -849.73322     -4431.7966
Averages over the last 6 of 11 rows, steps 65000 to 70000:
Temp KinEng PotEng TotEng Press
202.346 14.0977 -878.275 -864.177 -5897.5
Loop time of 24.0793 on 1 procs for 10000 steps with 540 atoms

unfix           1
write_data      data.eq.200.06
System init for write_data ...
next            istep
jump            SELF    equiloop
variable        istep   loop    0   8   pad
variable        Tm      equal   -7*99.99+800
fix             1       all     nvt     temp 100.07 100.07 1
fix             momentum    all momentum 1 linear 1 1 1
run             10000
Step          Temp          KinEng         PotEng         TotEng         Press
70000   205.91796      14.346555     -877.94176     -863.5952      -8196.2603
Averages over the last 6 of 11 rows, steps 75000 to 80000:
Temp KinEng PotEng TotEng Press
98.796 6.88324 -885.337 -878.454 -5712.18
Loop time of 24.2917 on 1 procs for 10000 steps with 540 atoms

unfix           1
write_data      data.eq.100.07
System init for write_data ...
next            istep
jump            SELF    equiloop
variable        istep   loop    0   8   pad
variable        Tm      equal   -8*99.99+800
fix             1       all     nvt     temp 0.0800000000000409 0.0800000000000409 1
fix             momentum    all momentum 1 linear 1 1 1
run             10000
Step          Temp          KinEng         PotEng         TotEng         Press
80000   103.25863      7.1941547     -885.18145     -877.9873      -7410.9987
Averages over the last 6 of 11 rows, steps 85000 to 90000:
Temp KinEng PotEng TotEng Press
0.0824438 0.00574396 -892.999 -892.994 -7339.66
Loop time of 24.1305 on 1 procs for 10000 steps with 540 atoms

unfix           1
write_data      data.eq.0.0800000000000409
System init for write_data ...
next            istep
jump            SELF    equiloop
