LAMMPS (27 Jun 2024)
# Variable definition
# Set initial temperature 1000K, delta T 100K
variable        Ti          equal   800
variable        Tf          equal   0
variable        P           equal   0
variable        dT          equal   49.999
variable        nT          equal   16
variable        Tdamp       equal   1.0
variable        Pdamp       equal   1.0
variable        dt          equal   0.01

# Set up problem
units           metal
# box tilt        large
atom_style      atomic

# Build structure
boundary        p p s
read_data       lammps.dat
Reading data file ...
  triclinic box = (0 0 0) to (37.593658 21.527795 100) with tilt (-27.496151 0 0)
  reading atoms ...
  540 atoms

# Read potential
pair_style      hybrid/overlay sw/mod sw/mod kolmogorov/crespi/z 14.0 kolmogorov/crespi/z 14.0 kolmogorov/crespi/z 14.0 kolmogorov/crespi/z 14.0 lj/cut 10.0

# Intralayer Interaction
pair_coeff * * sw/mod 1 tmd.sw Mo S S NULL NULL NULL
pair_coeff * * sw/mod 2 tmd.sw NULL NULL NULL Mo Se Se

# Interlayer Interaction
pair_coeff 1 5 kolmogorov/crespi/z 1 WS.KC Mo NULL NULL NULL Se NULL
pair_coeff 3 4 kolmogorov/crespi/z 2 WS.KC NULL NULL S Mo NULL NULL
pair_coeff 3 5 kolmogorov/crespi/z 3 WS.KC NULL NULL S NULL Se NULL
pair_coeff 1 4 kolmogorov/crespi/z 4 WS.KC Mo NULL NULL Mo NULL NULL
pair_coeff * * lj/cut 0.0 3.0
neighbor        2.0 bin
neigh_modify    every 1 delay 0 check yes

################### Molecular Dynamics Part #######################
timestep        0.01

thermo_style    custom step temp ke pe etotal press
thermo_modify   lost warn
thermo          1000

# Set the velocity
velocity        all create 800 248454 mom yes rot yes dist gaussian

# Save data
variable        temp    equal temp
variable        ke      equal ke
variable        pe      equal pe
variable        etotal  equal etotal
variable        vol     equal vol
fix             info    all   ave/time    1 100 100  v_temp v_ke v_pe v_etotal v_vol      file info_sa2.dat
dump            trj     all   custom      200 sa2.lammpstrj id type x y z

# Equilibrium slowly decrease temperature
label           equiloop
variable        istep   loop    0   16   pad
variable        Tm      equal   -00*49.999+800
fix             1       all     nvt     temp 800 800 1
fix             momentum    all momentum 1 linear 1 1 1
run             10000

CITE-CITE-CITE-CITE-CITE-CITE-CITE-CITE-CITE-CITE-CITE-CITE-CITE

Your simulation uses code contributions which should be cited:

- Type Label Framework: https://doi.org/10.1021/acs.jpcb.3c08419

@Article{Gissinger24,
 author = {Jacob R. Gissinger, Ilia Nikiforov, Yaser Afshar, Brendon Waters, Moon-ki Choi, Daniel S. Karls, Alexander Stukowski, Wonpil Im, Hendrik Heinz, Axel Kohlmeyer, and Ellad B. Tadmor},
 title = {Type Label Framework for Bonded Force Fields in LAMMPS},
 journal = {J. Phys. Chem. B},
 year =    2024,
 volume =  128,
 number =  13,
 pages =   {3282â€“-3297}
}

CITE-CITE-CITE-CITE-CITE-CITE-CITE-CITE-CITE-CITE-CITE-CITE-CITE

Step          Temp          KinEng         PotEng         TotEng         Press
0   800            55.736975     -887.45022     -831.71325     -18979.418
Averages over the last 6 of 11 rows, steps 5000 to 10000:
Temp KinEng PotEng TotEng Press
810.213 56.4485 -831.456 -775.007 881.446
Loop time of 22.7082 on 1 procs for 10000 steps with 540 atoms

unfix           1
next            istep
jump            SELF    equiloop
variable        istep   loop    0   16   pad
variable        Tm      equal   -01*49.999+800
fix             1       all     nvt     temp 750.001 750.001 1
fix             momentum    all momentum 1 linear 1 1 1
run             10000
Step          Temp          KinEng         PotEng         TotEng         Press
10000   857.09197      59.714642     -831.83898     -772.12434      2530.3081
Averages over the last 6 of 11 rows, steps 15000 to 20000:
Temp KinEng PotEng TotEng Press
759.729 52.9312 -831.417 -778.486 1303.8
Loop time of 22.2454 on 1 procs for 10000 steps with 540 atoms

unfix           1
next            istep
jump            SELF    equiloop
variable        istep   loop    0   16   pad
variable        Tm      equal   -02*49.999+800
fix             1       all     nvt     temp 700.002 700.002 1
fix             momentum    all momentum 1 linear 1 1 1
run             10000
Step          Temp          KinEng         PotEng         TotEng         Press
20000   744.69251      51.883635     -832.3203      -780.43666      4374.0198
Averages over the last 6 of 11 rows, steps 25000 to 30000:
Temp KinEng PotEng TotEng Press
704.059 49.0526 -838.068 -789.016 2258.75
Loop time of 22.171 on 1 procs for 10000 steps with 540 atoms

unfix           1
next            istep
jump            SELF    equiloop
variable        istep   loop    0   16   pad
variable        Tm      equal   -03*49.999+800
fix             1       all     nvt     temp 650.003 650.003 1
fix             momentum    all momentum 1 linear 1 1 1
run             10000
Step          Temp          KinEng         PotEng         TotEng         Press
30000   708.95115      49.39349      -837.6571      -788.26361      2919.3339
Averages over the last 6 of 11 rows, steps 35000 to 40000:
Temp KinEng PotEng TotEng Press
649.078 45.2221 -842.525 -797.302 2848.59
Loop time of 21.9463 on 1 procs for 10000 steps with 540 atoms

unfix           1
next            istep
jump            SELF    equiloop
variable        istep   loop    0   16   pad
variable        Tm      equal   -04*49.999+800
fix             1       all     nvt     temp 600.004 600.004 1
fix             momentum    all momentum 1 linear 1 1 1
run             10000
Step          Temp          KinEng         PotEng         TotEng         Press
40000   626.73776      43.665583     -842.44353     -798.77794     -589.00318
Averages over the last 6 of 11 rows, steps 45000 to 50000:
Temp KinEng PotEng TotEng Press
605.257 42.169 -846.476 -804.307 -400.42
Loop time of 21.4872 on 1 procs for 10000 steps with 540 atoms

unfix           1
next            istep
jump            SELF    equiloop
variable        istep   loop    0   16   pad
variable        Tm      equal   -05*49.999+800
fix             1       all     nvt     temp 550.005 550.005 1
fix             momentum    all momentum 1 linear 1 1 1
run             10000
Step          Temp          KinEng         PotEng         TotEng         Press
50000   576.63583      40.17492      -845.5496      -805.37468     -697.30665
Averages over the last 6 of 11 rows, steps 55000 to 60000:
Temp KinEng PotEng TotEng Press
546.374 38.0666 -850.625 -812.559 -637.832
Loop time of 20.8866 on 1 procs for 10000 steps with 540 atoms

unfix           1
next            istep
jump            SELF    equiloop
variable        istep   loop    0   16   pad
variable        Tm      equal   -06*49.999+800
fix             1       all     nvt     temp 500.006 500.006 1
fix             momentum    all momentum 1 linear 1 1 1
run             10000
Step          Temp          KinEng         PotEng         TotEng         Press
60000   548.68565      38.227597     -848.68493     -810.45733      3622.1607
Averages over the last 6 of 11 rows, steps 65000 to 70000:
Temp KinEng PotEng TotEng Press
500.799 34.8913 -855.402 -820.51 -2889.6
Loop time of 20.616 on 1 procs for 10000 steps with 540 atoms

unfix           1
next            istep
jump            SELF    equiloop
variable        istep   loop    0   16   pad
variable        Tm      equal   -07*49.999+800
fix             1       all     nvt     temp 450.007 450.007 1
fix             momentum    all momentum 1 linear 1 1 1
run             10000
Step          Temp          KinEng         PotEng         TotEng         Press
70000   507.50833      35.358724     -855.12728     -819.76856     -2264.8566
Averages over the last 6 of 11 rows, steps 75000 to 80000:
Temp KinEng PotEng TotEng Press
449.081 31.288 -858.884 -827.596 -2087.31
Loop time of 21.2145 on 1 procs for 10000 steps with 540 atoms

unfix           1
next            istep
jump            SELF    equiloop
variable        istep   loop    0   16   pad
variable        Tm      equal   -08*49.999+800
fix             1       all     nvt     temp 400.008 400.008 1
fix             momentum    all momentum 1 linear 1 1 1
run             10000
Step          Temp          KinEng         PotEng         TotEng         Press
80000   474.75731      33.07692      -857.82517     -824.74825     -4450.5309
Averages over the last 6 of 11 rows, steps 85000 to 90000:
Temp KinEng PotEng TotEng Press
389.824 27.1595 -862.495 -835.336 -3357.99
Loop time of 21.1696 on 1 procs for 10000 steps with 540 atoms

unfix           1
next            istep
jump            SELF    equiloop
variable        istep   loop    0   16   pad
variable        Tm      equal   -09*49.999+800
fix             1       all     nvt     temp 350.009 350.009 1
fix             momentum    all momentum 1 linear 1 1 1
run             10000
Step          Temp          KinEng         PotEng         TotEng         Press
90000   398.75008      27.781404     -861.75757     -833.97616     -965.55087
Averages over the last 6 of 11 rows, steps 95000 to 100000:
Temp KinEng PotEng TotEng Press
344.831 24.0248 -866.94 -842.916 -2760.42
Loop time of 21.6143 on 1 procs for 10000 steps with 540 atoms

unfix           1
next            istep
jump            SELF    equiloop
variable        istep   loop    0   16   pad
variable        Tm      equal   -10*49.999+800
fix             1       all     nvt     temp 300.01 300.01 1
fix             momentum    all momentum 1 linear 1 1 1
run             10000
Step          Temp          KinEng         PotEng         TotEng         Press
100000   321.07462      22.36966      -868.2374      -845.86774     -560.53404
Averages over the last 6 of 11 rows, steps 105000 to 110000:
Temp KinEng PotEng TotEng Press
295.874 20.6139 -869.778 -849.164 -3903.18
Loop time of 22.0446 on 1 procs for 10000 steps with 540 atoms

unfix           1
next            istep
jump            SELF    equiloop
variable        istep   loop    0   16   pad
variable        Tm      equal   -11*49.999+800
fix             1       all     nvt     temp 250.011 250.011 1
fix             momentum    all momentum 1 linear 1 1 1
run             10000
Step          Temp          KinEng         PotEng         TotEng         Press
110000   297.9758       20.760337     -869.31243     -848.55209     -3306.8847
Averages over the last 6 of 11 rows, steps 115000 to 120000:
Temp KinEng PotEng TotEng Press
250.896 17.4802 -874.498 -857.017 -4819.91
Loop time of 20.9614 on 1 procs for 10000 steps with 540 atoms

unfix           1
next            istep
jump            SELF    equiloop
variable        istep   loop    0   16   pad
variable        Tm      equal   -12*49.999+800
fix             1       all     nvt     temp 200.012 200.012 1
fix             momentum    all momentum 1 linear 1 1 1
run             10000
Step          Temp          KinEng         PotEng         TotEng         Press
120000   259.99088      18.113881     -874.08573     -855.97185     -4299.6444
Averages over the last 6 of 11 rows, steps 125000 to 130000:
Temp KinEng PotEng TotEng Press
200.486 13.9681 -877.964 -863.996 -3919.77
Loop time of 20.8475 on 1 procs for 10000 steps with 540 atoms

unfix           1
next            istep
jump            SELF    equiloop
variable        istep   loop    0   16   pad
variable        Tm      equal   -13*49.999+800
fix             1       all     nvt     temp 150.013 150.013 1
fix             momentum    all momentum 1 linear 1 1 1
run             10000
Step          Temp          KinEng         PotEng         TotEng         Press
130000   194.66504      13.562551     -878.11385     -864.5513      -1696.9284
Averages over the last 6 of 11 rows, steps 135000 to 140000:
Temp KinEng PotEng TotEng Press
147.74 10.2932 -881.629 -871.336 -5655.47
Loop time of 20.7944 on 1 procs for 10000 steps with 540 atoms

unfix           1
next            istep
jump            SELF    equiloop
variable        istep   loop    0   16   pad
variable        Tm      equal   -14*49.999+800
fix             1       all     nvt     temp 100.014 100.014 1
fix             momentum    all momentum 1 linear 1 1 1
run             10000
Step          Temp          KinEng         PotEng         TotEng         Press
140000   151.62749      10.564072     -881.06884     -870.50477     -5066.6265
Averages over the last 6 of 11 rows, steps 145000 to 150000:
Temp KinEng PotEng TotEng Press
100.94 7.03263 -885.552 -878.52 -6069.72
Loop time of 20.7798 on 1 procs for 10000 steps with 540 atoms

unfix           1
next            istep
jump            SELF    equiloop
variable        istep   loop    0   16   pad
variable        Tm      equal   -15*49.999+800
fix             1       all     nvt     temp 50.015 50.015 1
fix             momentum    all momentum 1 linear 1 1 1
run             10000
Step          Temp          KinEng         PotEng         TotEng         Press
150000   95.45607       6.6505407     -885.92317     -879.27263     -7190.6153
Averages over the last 6 of 11 rows, steps 155000 to 160000:
Temp KinEng PotEng TotEng Press
49.4293 3.4438 -889.307 -885.863 -6374.43
Loop time of 20.5434 on 1 procs for 10000 steps with 540 atoms

unfix           1
next            istep
jump            SELF    equiloop
variable        istep   loop    0   16   pad
variable        Tm      equal   -16*49.999+800
fix             1       all     nvt     temp 0.0159999999999627 0.0159999999999627 1
fix             momentum    all momentum 1 linear 1 1 1
run             10000
Step          Temp          KinEng         PotEng         TotEng         Press
160000   48.638843      3.3887275     -889.21801     -885.82929     -6625.6376
Averages over the last 6 of 11 rows, steps 165000 to 170000:
Temp KinEng PotEng TotEng Press
0.00715722 0.000498652 -893.004 -893.003 -7532.98
Loop time of 20.3777 on 1 procs for 10000 steps with 540 atoms

unfix           1
next            istep
jump            SELF    equiloop
